$# LS-DYNA Keyword file created by LS-PrePost(R) 2025 R1 (v4.12.0) - 01Oct2024
$# Created on Sep-8-2025 (19:38:36)
*KEYWORD
*TITLE
$#                                                                         title
DEM Test Model
*CONTROL_DISCRETE_ELEMENT
$#   ndamp     tdamp     frics     fricr     normk    sheark       cap       vtk
       0.0       0.0       0.0       0.0      0.01       0.0         0         0
$#   gamma       vol       ang       gap    unused    ignore      nbuf  parallel
*CONTROL_TERMINATION
$#  endtim    endcyc     dtmin    endeng    endmas     nosol
       0.1         0       0.0       0.01.000000E8         0
*CONTROL_TIMESTEP
$#  dtinit    tssfac      isdo    tslimt     dt2ms      lctm     erode     ms1st
       0.0       0.0         0       0.0       0.0         0         0         0
*DATABASE_BINARY_D3PLOT
$#      dt      lcdt      beam     npltc    psetid
      0.02         0         0         0         0
*DATABASE_BINARY_DEMFOR
$#      dt      lcdt      beam     npltc    psetid
      0.02         0         0         0         0
*MAT_ELASTIC
$#     mid        ro         e        pr        da        db  not used  not used
         21.40000E-9    7000.0       0.3       0.0       0.0         0         0
*NODE
$#   nid               x               y               z      tc      rc
      97         0.15015       0.3831809        0.268591       0       0
      98       0.8498501        0.746515       0.1576522       0       0
      99       0.4115112        0.748755         0.84985       0       0
     100       0.1834809         0.15015       0.6432142       0       0
     101       0.5634428         0.15015        0.446361       0       0
     102         0.84985       0.5036606       0.3459405       0       0
     103       0.5169558       0.8498498       0.3081227       0       0
     104       0.8498501       0.2002302       0.6439259       0       0
     105         0.15015       0.7676561       0.1626747       0       0
     106         0.15015       0.6419246        0.647846       0       0
     107         0.15015       0.3961698       0.8310853       0       0
     108       0.8498498       0.5557947       0.7598504       0       0
     109       0.5333064       0.4754568         0.15015       0       0
     110       0.7602385        0.849506       0.8498499       0       0
     111       0.8498498       0.7924134       0.5045815       0       0
     112       0.6207666       0.1509698         0.15015       0       0
     113       0.6115691       0.2071527       0.8498499       0       0
     114       0.2510459       0.8498499       0.4501613       0       0
     115        0.557135       0.4947957       0.7842878       0       0
     116       0.3466927       0.3522221       0.4931183       0       0
     117       0.4823072       0.6957566        0.563181       0       0
     118       0.8435521       0.2037329       0.3440125       0       0
*PART
$#                                                                         title
Disc_Sphere_2
$#     pid     secid       mid     eosid      hgid      grav    adpopt      tmid
         2         2         2         0         0         0         0         0
*SECTION_SOLID
$#   secid    elform       aet    unused    unused    unused    cohoff   gaskeit
         2         0         0                                     0.0       0.0
*ELEMENT_DISCRETE_SPHERE_VOLUME
$#     nid       pid    volume   inertia    radius    unused     idist      nid2
        97         2 0.01413721.27235E-4      0.15                   0         0
        98         2 0.01413721.27235E-4      0.15                   0         0
        99         2 0.01413721.27235E-4      0.15                   0         0
       100         2 0.01413721.27235E-4      0.15                   0         0
       101         2 0.01413721.27235E-4      0.15                   0         0
       102         2 0.01413721.27235E-4      0.15                   0         0
       103         2 0.01413721.27235E-4      0.15                   0         0
       104         2 0.01413721.27235E-4      0.15                   0         0
       105         2 0.01413721.27235E-4      0.15                   0         0
       106         2 0.01413721.27235E-4      0.15                   0         0
       107         2 0.01413721.27235E-4      0.15                   0         0
       108         2 0.01413721.27235E-4      0.15                   0         0
       109         2 0.01413721.27235E-4      0.15                   0         0
       110         2 0.01413721.27235E-4      0.15                   0         0
       111         2 0.01413721.27235E-4      0.15                   0         0
       112         2 0.01413721.27235E-4      0.15                   0         0
       113         2 0.01413721.27235E-4      0.15                   0         0
       114         2 0.01413721.27235E-4      0.15                   0         0
       115         2 0.01413721.27235E-4      0.15                   0         0
       116         2 0.01413721.27235E-4      0.15                   0         0
       117         2 0.01413721.27235E-4      0.15                   0         0
       118         2 0.01413721.27235E-4      0.15                   0         0
*END
